GLM/IEEE_8500node_whouses_FBS.glm
//IEEE 8500 node test system.
//  Generated 18-Nov-2016 16:45:13 using Matlab 8.5.0.197613 (R2015a).

clock {
     timezone PST+8PDT;
     starttime '2000-09-01 12:00:00';
     stoptime '2000-09-01 12:01:00';
}

module powerflow {
    solver_method FBS;
    line_limits TRUE;
    default_maximum_voltage_error 1e-4;
};
module market;
module tape;

#include "schedules.glm";

#set profiler=1;
#set relax_naming_rules=1;
#set suppress_repeat_messages=0;
#set savefile="8500_balanced_FBS.xml";
#set randomseed=10
//#define stylesheet=C:/Documents and Settings/d3x289/My Documents/GridLAB-D/trunk/VS2005/gridlabd-2_0;

// Regulators and regulator configurations

object regulator_configuration {
     connect_type 1;
     name reg_config_1;
     Control LINE_DROP_COMP;
     band_center 125.0;
     band_width 2.0;
     current_transducer_ratio 0;
     power_transducer_ratio 60.0;
     compensator_r_setting_A 0.0;
     compensator_x_setting_A 0.0;
     compensator_r_setting_B 0.0;
     compensator_x_setting_B 0.0;
     compensator_r_setting_C 0.0;
     compensator_x_setting_C 0.0;
     time_delay 60.0;
     raise_taps 16;
     lower_taps 16;
     regulation 0.1;
     Type B;
}

object regulator_configuration {
     connect_type 1;
     name reg_config_2;
     Control LINE_DROP_COMP;
     band_center 124.7;
     band_width 2.0;
     current_transducer_ratio 0;
     power_transducer_ratio 60.0;
     compensator_r_setting_A 0.0;
     compensator_x_setting_A 0.0;
     compensator_r_setting_B 0.0;
     compensator_x_setting_B 0.0;
     compensator_r_setting_C 0.0;
     compensator_x_setting_C 0.0;
     time_delay 120.0;
     raise_taps 16;
     lower_taps 16;
     regulation 0.1;
     Type B;
}

object regulator_configuration {
     connect_type 1;
     name reg_config_3;
     Control LINE_DROP_COMP;
     band_center 124.7;
     band_width 2.0;
     current_transducer_ratio 0;
     power_transducer_ratio 60.0;
     compensator_r_setting_A 0.0;
     compensator_x_setting_A 0.0;
     compensator_r_setting_B 0.0;
     compensator_x_setting_B 0.0;
     compensator_r_setting_C 0.0;
     compensator_x_setting_C 0.0;
     time_delay 75.0;
     raise_taps 16;
     lower_taps 16;
     regulation 0.1;
     Type B;
}

object regulator_configuration {
     connect_type 1;
     name reg_config_4;
     Control LINE_DROP_COMP;
     band_center 125.0;
     band_width 2.0;
     current_transducer_ratio 0;
     power_transducer_ratio 60.0;
     compensator_r_setting_A 0.0;
     compensator_x_setting_A 0.0;
     compensator_r_setting_B 0.0;
     compensator_x_setting_B 0.0;
     compensator_r_setting_C 0.0;
     compensator_x_setting_C 0.0;
     time_delay 90.0;
     raise_taps 16;
     lower_taps 16;
     regulation 0.1;
     Type B;
}

object regulator {
     name "FEEDER_REG";
     phases ABCN;
     from "regxfmr_HVMV_Sub_LSB";
     to "_HVMV_Sub_LSB";
     configuration reg_config_1;
}

object regulator {
     name VREG2;
     phases ABCN;
     from "regxfmr_190-8593";
     to "190-8593";
     configuration reg_config_2;
}

object regulator {
     name VREG3;
     phases ABCN;
     from "regxfmr_190-8581";
     to "190-8581";
     configuration reg_config_3;
}

object regulator {
     name VREG4;
     phases ABCN;
     from "regxfmr_190-7361";
     to "190-7361";
     configuration reg_config_4;
}

// Capacitors

object capacitor {
     parent R42246;
     phases ABCN;
     pt_phase ABC;
     name CapBank0;
     phases_connected ABCN;
     control VARVOLT;
     capacitor_A 0.4 MVAr;
     capacitor_B 0.4 MVAr;
     capacitor_C 0.4 MVAr;
     control_level INDIVIDUAL;
     voltage_set_high 7680.0;
     voltage_set_low 6840.0;
     VAr_set_high 475.0 kVAr;
     VAr_set_low -350.0 kVAr;
     time_delay 480.0;
     lockout_time 1;
     remote_sense CAP_3;
     remote_sense_B L2823592_CAP;
     nominal_voltage 7199.558;
}

object capacitor {
     parent R42247;
     pt_phase ABC;
     phases ABCN;
     name CapBank1;
     phases_connected ABCN;
     control VARVOLT;
     capacitor_A 0.3 MVAr;
     capacitor_B 0.3 MVAr;
     capacitor_C 0.3 MVAr;
     control_level INDIVIDUAL;
     voltage_set_high 7680.0;
     voltage_set_low 6840.0;
     VAr_set_high 425.0 kVAr;
     VAr_set_low -350.0 kVAr;
     time_delay 300.0;
     remote_sense CAP_2;
     lockout_time 1;
     remote_sense_B Q16483_CAP;
     nominal_voltage 7199.558;
}

object capacitor {
     parent R20185;
     pt_phase ABC;
     phases ABCN;
     name CapBank2;
     phases_connected ABCN;
     control VARVOLT;
     capacitor_A 0.3 MVAr;
     capacitor_B 0.3 MVAr;
     capacitor_C 0.3 MVAr;
     control_level INDIVIDUAL;
     voltage_set_high 7800.0;
     voltage_set_low 6840.0;
     VAr_set_high 450.0 kVAr;
     VAr_set_low -350.0 kVAr;
     time_delay 180.0;
     lockout_time 1;
     remote_sense CAP_1;
     remote_sense_B Q16642_CAP;
     nominal_voltage 7199.558;
}

object capacitor {
     phases ABCN;
     parent R18242;
     name CapBank3;
     phases_connected ABCN;
     control MANUAL;
     capacitor_A 0.3 MVAr;
     capacitor_B 0.3 MVAr;
     capacitor_C 0.3 MVAr;
     control_level INDIVIDUAL;
     switchA CLOSED;
     switchB CLOSED;
     switchC CLOSED;
     nominal_voltage 7199.558;
}

// Transformer and configuration at feeder

object transformer_configuration:27500 {
     connect_type DELTA_GWYE;
     name trans_config_1;
     install_type PADMOUNT;
     power_rating 27500kVA;
     primary_voltage 115.0kV;
     secondary_voltage 12.47kV;
     reactance 0.15510;
     resistance 0.01344;
}

object transformer {
     phases ABCN;
     name "HVMV_Sub";
     from "HVMV_Sub_HSB";
     to "regxfmr_HVMV_Sub_LSB";
     configuration trans_config_1;
}

// Center-tap transformer configurations

object transformer_configuration {
     name "1515A";
     connect_type SINGLE_PHASE_CENTER_TAPPED;
     install_type POLETOP;
     primary_voltage 7200.0V;
     secondary_voltage 120.0V;
     power_rating 15.0kVA;
     powerA_rating 15.0kVA;
     impedance 0.006000+0.013600j;
     impedance1 0.012000+0.006800j;
     impedance2 0.012000+0.006800j;
     shunt_impedance 1728000+691200j;
}

object transformer_configuration {
     name "2525B";
     connect_type SINGLE_PHASE_CENTER_TAPPED;
     install_type POLETOP;
     primary_voltage 7200.0;
     secondary_voltage 120.0;
     power_rating 25.0;
     powerB_rating 25.0;
     impedance 0.006+0.0136j;
     impedance1 0.012+0.0204j;
     impedance2 0.012+0.0204j;
     shunt_impedance 1036800+414720j;
}

object transformer_configuration {
     name "1515C";
     connect_type SINGLE_PHASE_CENTER_TAPPED;
     install_type POLETOP;
     primary_voltage 7200.0;
     secondary_voltage 120.0;
     power_rating 15.0;
     powerC_rating 15.0;
     impedance 0.006+0.0136j;
     impedance1 0.012+0.0204j;
     impedance2 0.012+0.0204j;
     shunt_impedance 1728000+691200j;
}

object transformer_configuration {
     name "3838A";
     connect_type SINGLE_PHASE_CENTER_TAPPED;
     install_type POLETOP;
     primary_voltage 7200.0;
     secondary_voltage 120.0;
     power_rating 37.5;
     powerA_rating 37.5;
     impedance 0.006+0.0136j;
     impedance1 0.012+0.0204j;
     impedance2 0.012+0.0204j;
     shunt_impedance 691200+276480j;
}

object transformer_configuration {
     name "1515B";
     connect_type SINGLE_PHASE_CENTER_TAPPED;
     install_type POLETOP;
     primary_voltage 7200.0;
     secondary_voltage 120.0;
     power_rating 15.0;
     powerB_rating 15.0;
     impedance 0.006+0.0136j;
     impedance1 0.012+0.0204j;
     impedance2 0.012+0.0204j;
     shunt_impedance 1728000+691200j;
}

object transformer_configuration {
     name "5050A";
     connect_type SINGLE_PHASE_CENTER_TAPPED;
     install_type POLETOP;
     primary_voltage 7200.0;
     secondary_voltage 120.0;
     power_rating 50.0;
     powerA_rating 50.0;
     impedance 0.006+0.0136j;
     impedance1 0.012+0.0204j;
     impedance2 0.012+0.0204j;
     shunt_impedance 518400+207360j;
}

object transformer_configuration {
     name "5050B";
     connect_type SINGLE_PHASE_CENTER_TAPPED;
     install_type POLETOP;
     primary_voltage 7200.0;
     secondary_voltage 120.0;
     power_rating 50.0;
     powerB_rating 50.0;
     impedance 0.006+0.0136j;
     impedance1 0.012+0.0204j;
     impedance2 0.012+0.0204j;
     shunt_impedance 518400+207360j;
}

object transformer_configuration {
     name "5050C";
     connect_type SINGLE_PHASE_CENTER_TAPPED;
     install_type POLETOP;
     primary_voltage 7200.0;
     secondary_voltage 120.0;
     power_rating 50.0;
     powerC_rating 50.0;
     impedance 0.006+0.0136j;
     impedance1 0.012+0.0204j;
     impedance2 0.012+0.0204j;
     shunt_impedance 518400+207360j;
}

object transformer_configuration {
     name "1010A";
     connect_type SINGLE_PHASE_CENTER_TAPPED;
     install_type POLETOP;
     primary_voltage 7200.0;
     secondary_voltage 120.0;
     power_rating 10.0;
     powerA_rating 10.0;
     impedance 0.006+0.0136j;
     impedance1 0.012+0.0204j;
     impedance2 0.012+0.0204j;
     shunt_impedance 2592000+1036800j;
}

object transformer_configuration {
     name "1010B";
     connect_type SINGLE_PHASE_CENTER_TAPPED;
     install_type POLETOP;
     primary_voltage 7200.0;
     secondary_voltage 120.0;
     power_rating 10.0;
     powerB_rating 10.0;
     impedance 0.006+0.0136j;
     impedance1 0.012+0.0204j;
     impedance2 0.012+0.0204j;
     shunt_impedance 2592000+1036800j;
}

object transformer_configuration {
     name "2525A";
     connect_type SINGLE_PHASE_CENTER_TAPPED;
     install_type POLETOP;
     primary_voltage 7200.0;
     secondary_voltage 120.0;
     power_rating 25.0;
     powerA_rating 25.0;
     impedance 0.006+0.0136j;
     impedance1 0.012+0.0204j;
     impedance2 0.012+0.0204j;
     shunt_impedance 1036800+414720j;
}

object transformer_configuration {
     name "1010C";
     connect_type SINGLE_PHASE_CENTER_TAPPED;
     install_type POLETOP;
     primary_voltage 7200.0;
     secondary_voltage 120.0;
     power_rating 10.0;
     powerC_rating 10.0;
     impedance 0.006+0.0136j;
     impedance1 0.012+0.0204j;
     impedance2 0.012+0.0204j;
     shunt_impedance 2592000+1036800j;
}

object transformer_configuration {
     name "2525C";
     connect_type SINGLE_PHASE_CENTER_TAPPED;
     install_type POLETOP;
     primary_voltage 7200.0;
     secondary_voltage 120.0;
     power_rating 25.0;
     powerC_rating 25.0;
     impedance 0.006+0.0136j;
     impedance1 0.012+0.0204j;
     impedance2 0.012+0.0204j;
     shunt_impedance 1036800+414720j;
}

object transformer_configuration {
     name "7575C";
     connect_type SINGLE_PHASE_CENTER_TAPPED;
     install_type POLETOP;
     primary_voltage 7200.0;
     secondary_voltage 120.0;
     power_rating 75.0;
     powerC_rating 75.0;
     impedance 0.006+0.0136j;
     impedance1 0.012+0.0204j;
     impedance2 0.012+0.0204j;
     shunt_impedance 345600+138240j;
}

object transformer_configuration {
     name "3838C";
     connect_type SINGLE_PHASE_CENTER_TAPPED;
     install_type POLETOP;
     primary_voltage 7200.0;
     secondary_voltage 120.0;
     power_rating 37.5;
     powerC_rating 37.5;
     impedance 0.006+0.0136j;
     impedance1 0.012+0.0204j;
     impedance2 0.012+0.0204j;
     shunt_impedance 691200+276480j;
}

object transformer_configuration {
     name "55B";
     connect_type SINGLE_PHASE_CENTER_TAPPED;
     install_type POLETOP;
     primary_voltage 7200.0;
     secondary_voltage 120.0;
     power_rating 5.0;
     powerB_rating 5.0;
     impedance 0.006+0.0136j;
     impedance1 0.012+0.0204j;
     impedance2 0.012+0.0204j;
     shunt_impedance 5184000+2073600j;
}

object transformer_configuration {
     name "3838B";
     connect_type SINGLE_PHASE_CENTER_TAPPED;
     install_type POLETOP;
     primary_voltage 7200.0;
     secondary_voltage 120.0;
     power_rating 37.5;
     powerB_rating 37.5;
     impedance 0.006+0.0136j;
     impedance1 0.012+0.0204j;
     impedance2 0.012+0.0204j;
     shunt_impedance 691200+276480j;
}

object transformer_configuration {
     name "7575A";
     connect_type SINGLE_PHASE_CENTER_TAPPED;
     install_type POLETOP;
     primary_voltage 7200.0;
     secondary_voltage 120.0;
     power_rating 75.0;
     powerA_rating 75.0;
     impedance 0.006+0.0136j;
     impedance1 0.012+0.0204j;
     impedance2 0.012+0.0204j;
     shunt_impedance 345600+138240j;
}

object transformer_configuration {
     name "7575B";
     connect_type SINGLE_PHASE_CENTER_TAPPED;
     install_type POLETOP;
     primary_voltage 7200.0;
     secondary_voltage 120.0;
     power_rating 75.0;
     powerB_rating 75.0;
     impedance 0.006+0.0136j;
     impedance1 0.012+0.0204j;
     impedance2 0.012+0.0204j;
     shunt_impedance 345600+138240j;
}

object transformer_configuration {
     name "55A";
     connect_type SINGLE_PHASE_CENTER_TAPPED;
     install_type POLETOP;
     primary_voltage 7200.0;
     secondary_voltage 120.0;
     power_rating 5.0;
     powerA_rating 5.0;
     impedance 0.006+0.0136j;
     impedance1 0.012+0.0204j;
     impedance2 0.012+0.0204j;
     shunt_impedance 5184000+2073600j;
}

object transformer_configuration {
     name "250250A";
     connect_type SINGLE_PHASE_CENTER_TAPPED;
     install_type POLETOP;
     primary_voltage 7200.0;
     secondary_voltage 120.0;
     power_rating 250.0;
     powerA_rating 250.0;
     impedance 0.006+0.0136j;
     impedance1 0.012+0.0204j;
     impedance2 0.012+0.0204j;
     shunt_impedance 103680+41472j;
}

object transformer_configuration {
     name "250250B";
     connect_type SINGLE_PHASE_CENTER_TAPPED;
     install_type POLETOP;
     primary_voltage 7200.0;
     secondary_voltage 120.0;
     power_rating 250.0;
     powerB_rating 250.0;
     impedance 0.006+0.0136j;
     impedance1 0.012+0.0204j;
     impedance2 0.012+0.0204j;
     shunt_impedance 103680+41472j;
}

object transformer_configuration {
     name "250250C";
     connect_type SINGLE_PHASE_CENTER_TAPPED;
     install_type POLETOP;
     primary_voltage 7200.0;
     secondary_voltage 120.0;
     power_rating 250.0;
     powerC_rating 250.0;
     impedance 0.006+0.0136j;
     impedance1 0.012+0.0204j;
     impedance2 0.012+0.0204j;
     shunt_impedance 103680+41472j;
}

object transformer_configuration {
     name "100100B";
     connect_type SINGLE_PHASE_CENTER_TAPPED;
     install_type POLETOP;
     primary_voltage 7200.0;
     secondary_voltage 120.0;
     power_rating 100.0;
     powerB_rating 100.0;
     impedance 0.006+0.0136j;
     impedance1 0.012+0.0204j;
     impedance2 0.012+0.0204j;
     shunt_impedance 259200+103680j;
}

// Center-tap transformers

object transformer {
     configuration "1515A";
     name "T21396254A";
     from "L2804253";
     to "X2804253A";
     nominal_voltage 7199.558;
     phases AS;
}

object transformer {
     configuration "2525B";
     name "T5321859B";
     from "L3254213";
     to "X3254213B";
     nominal_voltage 7199.558;
     phases BS;
}

object transformer {
     configuration "2525B";
     name "T5391741B";
     from "L3216339";
     to "X3216339B";
     nominal_voltage 7199.558;
     phases BS;
}

object transformer {
     configuration "1515A";
     name "T5293672A";
     from "L2954355";
     to "X2954355A";
     nominal_voltage 7199.558;
     phases AS;
}

object transformer {
     configuration "1515C";
     name "T21474711C";
     from "L2861197";
     to "X2861197C";
     nominal_voltage 7199.558;
     phases CS;
}

object transformer {
     configuration "3838A";
     name "T5260488A";
     from "L2842379";
     to "X2842379A";
     nominal_voltage 7199.558;
     phases AS;
}

object transformer {
     configuration "1515B";
     name "T5391758B";
     from "L2841636";
     to "X2841636B";
     nominal_voltage 7199.558;
     phases BS;
}

object transformer {
     configuration "5050A";
     name "T228091193A";
     from "L3047289";
     to "X3047289A";
     nominal_voltage 7199.558;
     phases AS;
}

object transformer {
     configuration "5050B";
     name "T228091193B";
     from "L3047289";
     to "X3047289B";
     nominal_voltage 7199.558;
     phases BS;
}

object transformer {
     configuration "5050C";
     name "T228091193C";
     from "L3047289";
     to "X3047289C";
     nominal_voltage 7199.558;
     phases CS;
}

object transformer {
     configuration "1515C";
     name "T5302862C";
     from "L3085399";
     to "X3085399C";
     nominal_voltage 7199.558;
     phases CS;
}

object transformer {
     configuration "5050B";
     name "T21236413B";
     from "L3085391";
     to "X3085391B";
     nominal_voltage 7199.558;
     phases BS;
}

object transformer {
     configuration "1010A";
     name "T5302468A";
     from "L2897778";
     to "X2897778A";
     nominal_voltage 7199.558;
     phases AS;
}

object transformer {
     configuration "1010A";
     name "T5294787A";
     from "L3197647";
     to "X3197647A";
     nominal_voltage 7199.558;
     phases AS;
}

object transformer {
     configuration "1010B";
     name "T5157715B";
     from "L2936275";
     to "X2936275B";
     nominal_voltage 7199.558;
     phases BS;
}

object transformer {
     configuration "2525B";
     name "T5355768B";
     from "L2729408";
     to "X2729408B";
     nominal_voltage 7199.558;
     phases BS;
}

object transformer {
     configuration "2525A";
     name "T5138562A";
     from "L2673310";
     to "X2673310A";
     nominal_voltage 7199.558;
     phases AS;
}

object transformer {
     configuration "1010A";
     name "T5355934A";
     from "L3048212";
     to "X3048212A";
     nominal_voltage 7199.558;
     phases AS;
}

object transformer {
     configuration "2525A";
     name "T5293483A";
     from "L3104133";
     to "X3104133A";
     nominal_voltage 7199.558;
     phases AS;
}

object transformer {
     configuration "1515A";
     name "T21399762A";
     from "L2879087";
     to "X2879087A";
     nominal_voltage 7199.558;
     phases AS;
}

object transformer {
     configuration "1010C";
     name "T5138650C";
     from "L2710510";
     to "X2710510C";
     nominal_voltage 7199.558;
     phases CS;
}

object transformer {
     configuration "2525B";
     name "T5323242B";
     from "L3122810";
     to "X3122810B";
     nominal_voltage 7199.558;
     phases BS;
}

object transformer {
     configuration "2525C";
     name "T28127090C";
     from "L2954352";
     to "X2954352C";
     nominal_voltage 7199.558;
     phases CS;
}

object transformer {
     configuration "1010A";
     name "T5138769A";
     from "L2729411";
     to "X2729411A";
     nominal_voltage 7199.558;
     phases AS;
}

object transformer {
     configuration "1515A";
     name "T5338896A";
     from "L3178971";
     to "X3178971A";
     nominal_voltage 7199.558;
     phases AS;
}

object transformer {
     configuration "2525B";
     name "T5355586B";
     from "L3254234";
     to "X3254234B";
     nominal_voltage 7199.558;
     phases BS;
}

object transformer {
     configuration "2525A";
     name "T5293471A";
     from "293471";
     to "X_293471A";
     nominal_voltage 7199.558;
     phases AS;
}

object transformer {
     configuration "2525B";
     name "T5293471B";
     from "293471";
     to "X_293471B";
     nominal_voltage 7199.558;
     phases BS;
}

object transformer {
     configuration "2525C";
     name "T5293471C";
     from "293471";
     to "X_293471C";
     nominal_voltage 7199.558;
     phases CS;
}

object transformer {
     configuration "2525A";
     name "T5338954A";
     from "L2860482";
     to "X2860482A";
     nominal_voltage 7199.558;
     phases AS;
}

object transformer {
     configuration "7575C";
     name "T21459629C";
     from "L2763811";
     to "X2763811C";
     nominal_voltage 7199.558;
     phases CS;
}

object transformer {
     configuration "3838A";
     name "T5260562A";
     from "L3251799";
     to "X3251799A";
     nominal_voltage 7199.558;
     phases AS;
}

object transformer {
     configuration "1515C";
     name "T21393486C";
     from "L2898526";
     to "X2898526C";
     nominal_voltage 7199.558;
     phases CS;
}

object transformer {
     configuration "2525B";
     name "T5293518B";
     from "L2897780";
     to "X2897780B";
     nominal_voltage 7199.558;
     phases BS;
}

object transformer {
     configuration "2525C";
     name "T226195194C";
     from "L3027124";
     to "X3027124C";
     nominal_voltage 7199.558;
     phases CS;
}

object transformer {
     configuration "2525B";
     name "T21383494B";
     from "L2954361";
     to "X2954361B";
     nominal_voltage 7199.558;
     phases BS;
}

object transformer {
     configuration "2525C";
     name "T5251863C";
     from "L2745811";
     to "X2745811C";
     nominal_voltage 7199.558;
     phases CS;
}

object transformer {
     configuration "2525A";
     name "T5293645A";
     from "L2841633";
     to "X2841633A";
     nominal_voltage 7199.558;
     phases AS;
}

object transformer {
     configuration "1515A";
     name "T21482431A";
     from "L2917359";
     to "X2917359A";
     nominal_voltage 7199.558;
     phases AS;
}

object transformer {
     configuration "1515A";
     name "T5293480A";
     from "L2748158";
     to "X2748158A";
     nominal_voltage 7199.558;
     phases AS;
}

object transformer {
     configuration "2525A";
     name "T21469911A";
     from "L2955047";
     to "X2955047A";
     nominal_voltage 7199.558;
     phases AS;
}

object transformer {
     configuration "3838C";
     name "T5355432C";
     from "L3122837";
     to "X3122837C";
     nominal_voltage 7199.558;
     phases CS;
}

object transformer {
     configuration "2525B";
     name "T5323285B";
     from "L2804269";
     to "X2804269B";
     nominal_voltage 7199.558;
     phases BS;
}

object transformer {
     configuration "1515C";
     name "T226192954C";
     from "L3157708";
     to "X3157708C";
     nominal_voltage 7199.558;
     phases CS;
}

object transformer {
     configuration "1515C";
     name "T5207292C";
     from "L3179682";
     to "X3179682C";
     nominal_voltage 7199.558;
     phases CS;
}

object transformer {
     configuration "1515B";
     name "T5337672B";
     from "L2822877";
     to "X2822877B";
     nominal_voltage 7199.558;
     phases BS;
}

object transformer {
     configuration "2525C";
     name "T5442373C";
     from "L3141393";
     to "X3141393C";
     nominal_voltage 7199.558;
     phases CS;
}

object transformer {
     configuration "3838A";
     name "T21470405A";
     from "L2897801";
     to "X2897801A";
     nominal_voltage 7199.558;
     phases AS;
}

object transformer {
     configuration "5050A";
     name "T5218474A";
     from "L3217056";
     to "X3217056A";
     nominal_voltage 7199.558;
     phases AS;
}

object transformer {
     configuration "2525A";
     name "T5218472A";
     from "L2936270";
     to "X2936270A";
     nominal_voltage 7199.558;
     phases AS;
}

object transformer {
     configuration "1010A";
     name "T5356014A";
     from "L3235249";
     to "X3235249A";
     nominal_voltage 7199.558;
     phases AS;
}

object transformer {
     configuration "2525C";
     name "T5260528C";
     from "L3217052";
     to "X3217052C";
     nominal_voltage 7199.558;
     phases CS;
}

object transformer {
     configuration "1010A";
     name "T5355933A";
     from "L2916598";
     to "X2916598A";
     nominal_voltage 7199.558;
     phases AS;
}

object transformer {
     configuration "2525A";
     name "T5138649A";
     from "L3048206";
     to "X3048206A";
     nominal_voltage 7199.558;
     phases AS;
}

object transformer {
     configuration "2525C";
     name "T5391978C";
     from "L3141402";
     to "X3141402C";
     nominal_voltage 7199.558;
     phases CS;
}

object transformer {
     configuration "1515A";
     name "T5138642A";
     from "L3235256";
     to "X3235256A";
     nominal_voltage 7199.558;
     phases AS;
}

object transformer {
     configuration "2525A";
     name "T21149420A";
     from "L3178973";
     to "X3178973A";
     nominal_voltage 7199.558;
     phases AS;
}

object transformer {
     configuration "2525A";
     name "T21382992A";
     from "L3197654";
     to "X3197654A";
     nominal_voltage 7199.558;
     phases AS;
}

object transformer {
     configuration "2525C";
     name "T5338958C";
     from "L3066809";
     to "X3066809C";
     nominal_voltage 7199.558;
     phases CS;
}

object transformer {
     configuration "1515B";
     name "T5355585B";
     from "L2766742";
     to "X2766742B";
     nominal_voltage 7199.558;
     phases BS;
}

object transformer {
     configuration "1515A";
     name "T5338900A";
     from "L2991908";
     to "X2991908A";
     nominal_voltage 7199.558;
     phases AS;
}

object transformer {
     configuration "2525B";
     name "T5323389B";
     from "L3065750";
     to "X3065750B";
     nominal_voltage 7199.558;
     phases BS;
}

object transformer {
     configuration "3838A";
     name "T28127253A";
     from "L3085401";
     to "X3085401A";
     nominal_voltage 7199.558;
     phases AS;
}

object transformer {
     configuration "1515A";
     name "T21397067A";
     from "L2729413";
     to "X2729413A";
     nominal_voltage 7199.558;
     phases AS;
}

object transformer {
     configuration "55B";
     name "T5260520B";
     from "L3254915";
     to "X3254915B";
     nominal_voltage 7199.558;
     phases BS;
}

object transformer {
     configuration "1515B";
     name "T5323250B";
     from "L2748131";
     to "X2748131B";
     nominal_voltage 7199.558;
     phases BS;
}

object transformer {
     configuration "2525C";
     name "T5337659C";
     from "L3066810";
     to "X3066810C";
     nominal_voltage 7199.558;
     phases CS;
}

object transformer {
     configuration "2525B";
     name "T28118903B";
     from "L2973146";
     to "X2973146B";
     nominal_voltage 7199.558;
     phases BS;
}

object transformer {
     configuration "2525B";
     name "T21398646B";
     from "L2973180";
     to "X2973180B";
     nominal_voltage 7199.558;
     phases BS;
}

object transformer {
     configuration "1515B";
     name "T5293656B";
     from "L2973167";
     to "X2973167B";
     nominal_voltage 7199.558;
     phases BS;
}

object transformer {
     configuration "2525C";
     name "T5338910C";
     from "L2841621";
     to "X2841621C";
     nominal_voltage 7199.558;
     phases CS;
}

object transformer {
     configuration "1515C";
     name "T28129923C";
     from "L3123509";
     to "X3123509C";
     nominal_voltage 7199.558;
     phases CS;
}

object transformer {
     configuration "1515A";
     name "T5337716A";
     from "L2841627";
     to "X2841627A";
     nominal_voltage 7199.558;
     phases AS;
}

object transformer {
     configuration "1010B";
     name "T5337698B";
     from "L3235250";
     to "X3235250B";
     nominal_voltage 7199.558;
     phases BS;
}

object transformer {
     configuration "2525A";
     name "T2224386946A";
     from "L3728037";
     to "X3728037A";
     nominal_voltage 7199.558;
     phases AS;
}

object transformer {
     configuration "1010B";
     name "T5330121B";
     from "L3142078";
     to "X3142078B";
     nominal_voltage 7199.558;
     phases BS;
}

object transformer {
     configuration "1515B";
     name "T5323252B";
     from "L2879066";
     to "X2879066B";
     nominal_voltage 7199.558;
     phases BS;
}

object transformer {
     configuration "2525C";
     name "T5441331C";
     from "L3235254";
     to "X3235254C";
     nominal_voltage 7199.558;
     phases CS;
}

object transformer {
     configuration "2525A";
     name "T5260474A";
     from "L2917330";
     to "X2917330A";
     nominal_voltage 7199.558;
     phases AS;
}

object transformer {
     configuration "1010B";
     name "T5355376B";
     from "L2914323";
     to "X2914323B";
     nominal_voltage 7199.558;
     phases BS;
}

object transformer {
     configuration "1010C";
     name "T5338944C";
     from "L3197640";
     to "X3197640C";
     nominal_voltage 7199.558;
     phases CS;
}

object transformer {
     configuration "1515C";
     name "T5260640C";
     from "L3179673";
     to "X3179673C";
     nominal_voltage 7199.558;
     phases CS;
}

object transformer {
     configuration "2525C";
     name "T5274997C";
     from "L3048228";
     to "X3048228C";
     nominal_voltage 7199.558;
     phases CS;
}

object transformer {
     configuration "1010C";
     name "T5138372C";
     from "L3104126";
     to "X3104126C";
     nominal_voltage 7199.558;
     phases CS;
}

object transformer {
     configuration "5050A";
     name "T226308721A";
     from "L2990098";
     to "X2990098A";
     nominal_voltage 7199.558;
     phases AS;
}

object transformer {
     configuration "2525A";
     name "T21380616A";
     from "L2879067";
     to "X2879067A";
     nominal_voltage 7199.558;
     phases AS;
}

object transformer {
     configuration "2525A";
     name "T226193170A";
     from "L3176656";
     to "X3176656A";
     nominal_voltage 7199.558;
     phases AS;
}

object transformer {
     configuration "1010C";
     name "T5293666C";
     from "L2710532";
     to "X2710532C";
     nominal_voltage 7199.558;
     phases CS;
}

object transformer {
     configuration "5050B";
     name "T5338994B";
     from "L3160115";
     to "X3160115B";
     nominal_voltage 7199.558;
     phases BS;
}

object transformer {
     configuration "3838C";
     name "T228665517C";
     from "L3103822";
     to "X3103822C";
     nominal_voltage 7199.558;
     phases CS;
}

object transformer {
     configuration "1010A";
     name "T5260647A";
     from "L2805034";
     to "X2805034A";
     nominal_voltage 7199.558;
     phases AS;
}

object transformer {
     configuration "1515A";
     name "T226115278A";
     from "L3157167";
     to "X3157167A";
     nominal_voltage 7199.558;
     phases AS;
}

object transformer {
     configuration "1010A";
     name "T5338977A";
     from "L2916620";
     to "X2916620A";
     nominal_voltage 7199.558;
     phases AS;
}

object transformer {
     configuration "1010B";
     name "T5338977B";
     from "L2916620";
     to "X2916620B";
     nominal_voltage 7199.558;
     phases BS;
}

object transformer {
     configuration "1010C";
     name "T5338977C";
     from "L2916620";
     to "X2916620C";
     nominal_voltage 7199.558;
     phases CS;
}

object transformer {
     configuration "1515A";
     name "T5321876A";
     from "L3027132";
     to "X3027132A";
     nominal_voltage 7199.558;
     phases AS;
}

object transformer {
     configuration "1515C";
     name "T5275001C";
     from "L2822862";
     to "X2822862C";
     nominal_voltage 7199.558;
     phases CS;
}

object transformer {
     configuration "2525C";
     name "T227411650C";
     from "L2937757";
     to "X2937757C";
     nominal_voltage 7199.558;
     phases CS;
}

object transformer {
     configuration "2525B";
     name "T21396699B";
     from "L2860483";
     to "X2860483B";
     nominal_voltage 7199.558;
     phases BS;
}

object transformer {
     configuration "3838A";
     name "T5302412A";
     from "L3048210";
     to "X3048210A";
     nominal_voltage 7199.558;
     phases AS;
}

object transformer {
     configuration "2525A";
     name "T2223661373A";
     from "L3312692";
     to "X3312692A";
     nominal_voltage 7199.558;
     phases AS;
}

object transformer {
     configuration "2525A";
     name "T226881700A";
     from "L3251854";
     to "X3251854A";
     nominal_voltage 7199.558;
     phases AS;
}

object transformer {
     configuration "2525B";
     name "T5355777B";
     from "L3085398";
     to "X3085398B";
     nominal_voltage 7199.558;
     phases BS;
}

object transformer {
     configuration "1515A";
     name "T5337671A";
     from "L3254207";
     to "X3254207A";
     nominal_voltage 7199.558;
     phases AS;
}

object transformer {
     configuration "1515A";
     name "T5339018A";
     from "L2729424";
     to "X2729424A";
     nominal_voltage 7199.558;
     phases AS;
}

object transformer {
     configuration "1515A";
     name "T21398676A";
     from "L3066816";
     to "X3066816A";
     nominal_voltage 7199.558;
     phases AS;
}

object transformer {
     configuration "1515C";
     name "T5138469C";
     from "L2785518";
     to "X2785518C";
     nominal_voltage 7199.558;
     phases CS;
}

object transformer {
     configuration "1515C";
     name "T5138373C";
     from "L3029503";
     to "X3029503C";
     nominal_voltage 7199.558;
     phases CS;
}

object transformer {
     configuration "2525A";
     name "T5391995A";
     from "L2748140";
     to "X2748140A";
     nominal_voltage 7199.558;
     phases AS;
}

object transformer {
     configuration "1515C";
     name "T225533423C";
     from "L2891575";
     to "X2891575C";
     nominal_voltage 7199.558;
     phases CS;
}

object transformer {
     configuration "1515C";
     name "T5260568C";
     from "L2842329";
     to "X2842329C";
     nominal_voltage 7199.558;
     phases CS;
}

object transformer {
     configuration "3838B";
     name "T5138754B";
     from "L3254212";
     to "X3254212B";
     nominal_voltage 7199.558;
     phases BS;
}

object transformer {
     configuration "5050A";
     name "T5260552A";
     from "L3198348";
     to "X3198348A";
     nominal_voltage 7199.558;
     phases AS;
}

object transformer {
     configuration "3838C";
     name "T5338968C";
     from "L3178979";
     to "X3178979C";
     nominal_voltage 7199.558;
     phases CS;
}

object transformer {
     configuration "2525A";
     name "T5247061A";
     from "L2879054";
     to "X2879054A";
     nominal_voltage 7199.558;
     phases AS;
}

object transformer {
     configuration "1010B";
     name "T5391746B";
     from "L3085388";
     to "X3085388B";
     nominal_voltage 7199.558;
     phases BS;
}

object transformer {
     configuration "1515C";
     name "T5338941C";
     from "L2991914";
     to "X2991914C";
     nominal_voltage 7199.558;
     phases CS;
}

object transformer {
     configuration "2525B";
     name "T5338982B";
     from "L2785534";
     to "X2785534B";
     nominal_voltage 7199.558;
     phases BS;
}

object transformer {
     configuration "1515B";
     name "T5339008B";
     from "L3122835";
     to "X3122835B";
     nominal_voltage 7199.558;
     phases BS;
}

object transformer {
     configuration "1515A";
     name "T21391094A";
     from "L3085395";
     to "X3085395A";
     nominal_voltage 7199.558;
     phases AS;
}

object transformer {
     configuration "2525A";
     name "T5138581A";
     from "L2879064";
     to "X2879064A";
     nominal_voltage 7199.558;
     phases AS;
}

object transformer {
     configuration "1010B";
     name "T5338979B";
     from "L3066814";
     to "X3066814B";
     nominal_voltage 7199.558;
     phases BS;
}

object transformer {
     configuration "7575A";
     name "T226308720A";
     from "L2821087";
     to "X2821087A";
     nominal_voltage 7199.558;
     phases AS;
}

object transformer {
     configuration "1010B";
     name "T5355595B";
     from "L2860479";
     to "X2860479B";
     nominal_voltage 7199.558;
     phases BS;
}

object transformer {
     configuration "3838A";
     name "T2224387113A";
     from "L3728042";
     to "X3728042A";
     nominal_voltage 7199.558;
     phases AS;
}

object transformer {
     configuration "3838A";
     name "T21397005A";
     from "L2935557";
     to "X2935557A";
     nominal_voltage 7199.558;
     phases AS;
}

object transformer {
     configuration "1515C";
     name "T5274985C";
     from "L2822864";
     to "X2822864C";
     nominal_voltage 7199.558;
     phases CS;
}

object transformer {
     configuration "1515A";
     name "T5321836A";
     from "L3235247";
     to "X3235247A";
     nominal_voltage 7199.558;
     phases AS;
}

object transformer {
     configuration "2525A";
     name "T225673440A";
     from "L3251807";
     to "X3251807A";
     nominal_voltage 7199.558;
     phases AS;
}

object transformer {
     configuration "1515C";
     name "T5337641C";
     from "L2804282";
     to "X2804282C";
     nominal_voltage 7199.558;
     phases CS;
}

object transformer {
     configuration "1515C";
     name "T5293659C";
     from "L2935560";
     to "X2935560C";
     nominal_voltage 7199.558;
     phases CS;
}

object transformer {
     configuration "1515B";
     name "T5339011B";
     from "L3104145";
     to "X3104145B";
     nominal_voltage 7199.558;
     phases BS;
}

object transformer {
     configuration "2525A";
     name "T5218473A";
     from "L3086078";
     to "X3086078A";
     nominal_voltage 7199.558;
     phases AS;
}

object transformer {
     configuration "1515A";
     name "T28121587A";
     from "L2860477";
     to "X2860477A";
     nominal_voltage 7199.558;
     phases AS;
}

object transformer {
     configuration "7575C";
     name "T2224230689C";
     from "L3645811";
     to "X3645811C";
     nominal_voltage 7199.558;
     phases CS;
}

object transformer {
     configuration "2525B";
     name "T227734175B";
     from "L3102793";
     to "X3102793B";
     nominal_voltage 7199.558;
     phases BS;
}

object transformer {
     configuration "1515B";
     name "T5337694B";
     from "L2991910";
     to "X2991910B";
     nominal_voltage 7199.558;
     phases BS;
}

object transformer {
     configuration "2525A";
     name "T21357515A";
     from "L2710511";
     to "X2710511A";
     nominal_voltage 7199.558;
     phases AS;
}

object transformer {
     configuration "1515C";
     name "T28127390C";
     from "L2860486";
     to "X2860486C";
     nominal_voltage 7199.558;
     phases CS;
}

object transformer {
     configuration "1515C";
     name "T21387929C";
     from "L2935551";
     to "X2935551C";
     nominal_voltage 7199.558;
     phases CS;
}

object transformer {
     configuration "2525B";
     name "T5355605B";
     from "L2729409";
     to "X2729409B";
     nominal_voltage 7199.558;
     phases BS;
}

object transformer {
     configuration "1515B";
     name "T5260630B";
     from "L2973833";
     to "X2973833B";
     nominal_voltage 7199.558;
     phases BS;
}

object transformer {
     configuration "2525C";
     name "T5337660C";
     from "L2897769";
     to "X2897769C";
     nominal_voltage 7199.558;
     phases CS;
}

object transformer {
     configuration "1515C";
     name "T5293663C";
     from "L3216368";
     to "X3216368C";
     nominal_voltage 7199.558;
     phases CS;
}

object transformer {
     configuration "2525A";
     name "T5138719A";
     from "L2860490";
     to "X2860490A";
     nominal_voltage 7199.558;
     phases AS;
}

object transformer {
     configuration "2525C";
     name "T5251858C";
     from "L2861158";
     to "X2861158C";
     nominal_voltage 7199.558;
     phases CS;
}

object transformer {
     configuration "3838C";
     name "T5302804C";
     from "L3141399";
     to "X3141399C";
     nominal_voltage 7199.558;
     phases CS;
}

object transformer {
     configuration "2525B";
     name "T5356062B";
     from "L3122816";
     to "X3122816B";
     nominal_voltage 7199.558;
     phases BS;
}

object transformer {
     configuration "1515C";
     name "T5346639C";
     from "L2992556";
     to "X2992556C";
     nominal_voltage 7199.558;
     phases CS;
}

object transformer {
     configuration "2525C";
     name "T5302508C";
     from "L2897779";
     to "X2897779C";
     nominal_voltage 7199.558;
     phases CS;
}

object transformer {
     configuration "2525A";
     name "T5321881A";
     from "L2970811";
     to "X2970811A";
     nominal_voltage 7199.558;
     phases AS;
}

object transformer {
     configuration "5050C";
     name "T5355433C";
     from "L2991933";
     to "X2991933C";
     nominal_voltage 7199.558;
     phases CS;
}

object transformer {
     configuration "1515A";
     name "T21398402A";
     from "L2729428";
     to "X2729428A";
     nominal_voltage 7199.558;
     phases AS;
}

object transformer {
     configuration "2525A";
     name "T21398563A";
     from "L3254216";
     to "X3254216A";
     nominal_voltage 7199.558;
     phases AS;
}

object transformer {
     configuration "1515B";
     name "T21386771B";
     from "L2897807";
     to "X2897807B";
     nominal_voltage 7199.558;
     phases BS;
}

object transformer {
     configuration "2525A";
     name "T5260648A";
     from "L2898522";
     to "X2898522A";
     nominal_voltage 7199.558;
     phases AS;
}

object transformer {
     configuration "2525C";
     name "T5293490C";
     from "L3048230";
     to "X3048230C";
     nominal_voltage 7199.558;
     phases CS;
}

object transformer {
     configuration "1515A";
     name "T225901711A";
     from "L3195327";
     to "X3195327A";
     nominal_voltage 7199.558;
     phases AS;
}

object transformer {
     configuration "3838A";
     name "T227902981A";
     from "L3047058";
     to "X3047058A";
     nominal_voltage 7199.558;
     phases AS;
}

object transformer {
     configuration "2525B";
     name "T5321853B";
     from "L2673313";
     to "X2673313B";
     nominal_voltage 7199.558;
     phases BS;
}

object transformer {
     configuration "3838A";
     name "T2224237653A";
     from "L3649302";
     to "X3649302A";
     nominal_voltage 7199.558;
     phases AS;
}

object transformer {
     configuration "2525A";
     name "T2224386592A";
     from "L3729297";
     to "X3729297A";
     nominal_voltage 7199.558;
     phases AS;
}

object transformer {
     configuration "1515A";
     name "T5391990A";
     from "L2858163";
     to "X2858163A";
     nominal_voltage 7199.558;
     phases AS;
}

object transformer {
     configuration "1515B";
     name "T226881057B";
     from "L3214112";
     to "X3214112B";
     nominal_voltage 7199.558;
     phases BS;
}

object transformer {
     configuration "2525A";
     name "T225533531A";
     from "L2685805";
     to "X2685805A";
     nominal_voltage 7199.558;
     phases AS;
}

object transformer {
     configuration "1515A";
     name "T5247056A";
     from "L2991912";
     to "X2991912A";
     nominal_voltage 7199.558;
     phases AS;
}

object transformer {
     configuration "2525A";
     name "T227905262A";
     from "L3140238";
     to "X3140238A";
     nominal_voltage 7199.558;
     phases AS;
}

object transformer {
     configuration "2525B";
     name "T21469960B";
     from "L3066830";
     to "X3066830B";
     nominal_voltage 7199.558;
     phases BS;
}

object transformer {
     configuration "1515C";
     name "T5260511C";
     from "L3160878";
     to "X3160878C";
     nominal_voltage 7199.558;
     phases CS;
}

object transformer {
     configuration "1515C";
     name "T5138346C";
     from "L2916609";
     to "X2916609C";
     nominal_voltage 7199.558;
     phases CS;
}

object transformer {
     configuration "1010A";
     name "T225806974A";
     from "L2876814";
     to "X2876814A";
     nominal_voltage 7199.558;
     phases AS;
}

object transformer {
     configuration "2525B";
     name "T5355944B";
     from "L3197646";
     to "X3197646B";
     nominal_voltage 7199.558;
     phases BS;
}

object transformer {
     configuration "1515A";
     name "T5138569A";
     from "L2973151";
     to "X2973151A";
     nominal_voltage 7199.558;
     phases AS;
}

object transformer {
     configuration "2525C";
     name "T5337625C";
     from "L3197627";
     to "X3197627C";
     nominal_voltage 7199.558;
     phases CS;
}

object transformer {
     configuration "2525A";
     name "T5321874A";
     from "L2764412";
     to "X2764412A";
     nominal_voltage 7199.558;
     phases AS;
}

object transformer {
     configuration "1515C";
     name "T5337713C";
     from "L2766716";
     to "X2766716C";
     nominal_voltage 7199.558;
     phases CS;
}

object transformer {
     configuration "1010B";
     name "T5391757B";
     from "L2991917";
     to "X2991917B";
     nominal_voltage 7199.558;
     phases BS;
}

object transformer {
     configuration "2525B";
     name "T5338998B";
     from "L3254229";
     to "X3254229B";
     nominal_voltage 7199.558;
     phases BS;
}

object transformer {
     configuration "2525B";
     name "T5356064B";
     from "L2935556";
     to "X2935556B";
     nominal_voltage 7199.558;
     phases BS;
}

object transformer {
     configuration "2525B";
     name "T5323275B";
     from "L3197660";
     to "X3197660B";
     nominal_voltage 7199.558;
     phases BS;
}

object transformer {
     configuration "2525A";
     name "T21389237A";
     from "L2989565";
     to "X2989565A";
     nominal_voltage 7199.558;
     phases AS;
}

object transformer {
     configuration "5050C";
     name "T2224230615C";
     from "L3645809";
     to "X3645809C";
     nominal_voltage 7199.558;
     phases CS;
}

object transformer {
     configuration "1515B";
     name "T5260463B";
     from "L3086075";
     to "X3086075B";
     nominal_voltage 7199.558;
     phases BS;
}

object transformer {
     configuration "1515A";
     name "T5302402A";
     from "L3122824";
     to "X3122824A";
     nominal_voltage 7199.558;
     phases AS;
}

object transformer {
     configuration "2525B";
     name "T5355599B";
     from "L3216338";
     to "X3216338B";
     nominal_voltage 7199.558;
     phases BS;
}

object transformer {
     configuration "2525B";
     name "T21393412B";
     from "L2729405";
     to "X2729405B";
     nominal_voltage 7199.558;
     phases BS;
}

object transformer {
     configuration "2525A";
     name "T5356807A";
     from "L2823545";
     to "X2823545A";
     nominal_voltage 7199.558;
     phases AS;
}

object transformer {
     configuration "2525B";
     name "T5293660B";
     from "L2916610";
     to "X2916610B";
     nominal_voltage 7199.558;
     phases BS;
}

object transformer {
     configuration "3838A";
     name "T227731863A";
     from "L3177665";
     to "X3177665A";
     nominal_voltage 7199.558;
     phases AS;
}

object transformer {
     configuration "5050A";
     name "T227760021A";
     from "L2803199";
     to "X2803199A";
     nominal_voltage 7199.558;
     phases AS;
}

object transformer {
     configuration "5050B";
     name "T227760021B";
     from "L2803199";
     to "X2803199B";
     nominal_voltage 7199.558;
     phases BS;
}

object transformer {
     configuration "5050C";
     name "T227760021C";
     from "L2803199";
     to "X2803199C";
     nominal_voltage 7199.558;
     phases CS;
}

object transformer {
     configuration "1515A";
     name "T5391980A";
     from "L2691952";
     to "X2691952A";
     nominal_voltage 7199.558;
     phases AS;
}

object transformer {
     configuration "2525A";
     name "T5338984A";
     from "L2748144";
     to "X2748144A";
     nominal_voltage 7199.558;
     phases AS;
}

object transformer {
     configuration "2525B";
     name "T5337702B";
     from "L3029504";
     to "X3029504B";
     nominal_voltage 7199.558;
     phases BS;
}

object transformer {
     configuration "1515B";
     name "T5337696B";
     from "L3197635";
     to "X3197635B";
     nominal_voltage 7199.558;
     phases BS;
}

object transformer {
     configuration "2525C";
     name "T225577437C";
     from "L2724120";
     to "X2724120C";
     nominal_voltage 7199.558;
     phases CS;
}

object transformer {
     configuration "2525A";
     name "T5337676A";
     from "L3235244";
     to "X3235244A";
     nominal_voltage 7199.558;
     phases AS;
}

object transformer {
     configuration "2525A";
     name "T5323418A";
     from "L2804254";
     to "X2804254A";
     nominal_voltage 7199.558;
     phases AS;
}

object transformer {
     configuration "2525B";
     name "T226192936B";
     from "L2820531";
     to "X2820531B";
     nominal_voltage 7199.558;
     phases BS;
}

object transformer {
     configuration "2525B";
     name "T5337706B";
     from "L3254214";
     to "X3254214B";
     nominal_voltage 7199.558;
     phases BS;
}

object transformer {
     configuration "5050B";
     name "T5339010B";
     from "L2691966";
     to "X2691966B";
     nominal_voltage 7199.558;
     phases BS;
}

object transformer {
     configuration "2525A";
     name "T5391987A";
     from "L3122822";
     to "X3122822A";
     nominal_voltage 7199.558;
     phases AS;
}

object transformer {
     configuration "2525A";
     name "T5310569A";
     from "L3197639";
     to "X3197639A";
     nominal_voltage 7199.558;
     phases AS;
}

object transformer {
     configuration "1515A";
     name "T225869139A";
     from "L3120503";
     to "X3120503A";
     nominal_voltage 7199.558;
     phases AS;
}

object transformer {
     configuration "1515B";
     name "T5337708B";
     from "L3216349";
     to "X3216349B";
     nominal_voltage 7199.558;
     phases BS;
}

object transformer {
     configuration "7575B";
     name "T226308719B";
     from "L3027670";
     to "X3027670B";
     nominal_voltage 7199.558;
     phases BS;
}

object transformer {
     configuration "1515C";
     name "T5337630C";
     from "L3085392";
     to "X3085392C";
     nominal_voltage 7199.558;
     phases CS;
}

object transformer {
     configuration "1515A";
     name "T5138655A";
     from "L3010556";
     to "X3010556A";
     nominal_voltage 7199.558;
     phases AS;
}

object transformer {
     configuration "2525A";
     name "T226194826A";
     from "L3232902";
     to "X3232902A";
     nominal_voltage 7199.558;
     phases AS;
}

object transformer {
     configuration "3838A";
     name "T5356808A";
     from "L3101782";
     to "X3101782A";
     nominal_voltage 7199.558;
     phases AS;
}

object transformer {
     configuration "1515B";
     name "T5355593B";
     from "L2766715";
     to "X2766715B";
     nominal_voltage 7199.558;
     phases BS;
}

object transformer {
     configuration "2525C";
     name "T5356787C";
     from "L2970804";
     to "X2970804C";
     nominal_voltage 7199.558;
     phases CS;
}

object transformer {
     configuration "2525B";
     name "T5321845B";
     from "L3178975";
     to "X3178975B";
     nominal_voltage 7199.558;
     phases BS;
}

object transformer {
     configuration "1515A";
     name "T5337720A";
     from "L2841648";
     to "X2841648A";
     nominal_voltage 7199.558;
     phases AS;
}

object transformer {
     configuration "1010C";
     name "T5337631C";
     from "L3029497";
     to "X3029497C";
     nominal_voltage 7199.558;
     phases CS;
}

object transformer {
     configuration "1515B";
     name "T21486213B";
     from "L3029520";
     to "X3029520B";
     nominal_voltage 7199.558;
     phases BS;
}

object transformer {
     configuration "2525B";
     name "T28127319B";
     from "L2766744";
     to "X2766744B";
     nominal_voltage 7199.558;
     phases BS;
}

object transformer {
     configuration "2525B";
     name "T5337666B";
     from "L3029518";
     to "X3029518B";
     nominal_voltage 7199.558;
     phases BS;
}

object transformer {
     configuration "2525A";
     name "T5356809A";
     from "L2936214";
     to "X2936214A";
     nominal_voltage 7199.558;
     phases AS;
}

object transformer {
     configuration "2525B";
     name "T5323397B";
     from "L2954346";
     to "X2954346B";
     nominal_voltage 7199.558;
     phases BS;
}

object transformer {
     configuration "1010B";
     name "T5337692B";
     from "L2879061";
     to "X2879061B";
     nominal_voltage 7199.558;
     phases BS;
}

object transformer {
     configuration "2525B";
     name "T5339042B";
     from "L3141394";
     to "X3141394B";
     nominal_voltage 7199.558;
     phases BS;
}

object transformer {
     configuration "2525B";
     name "T5260501B";
     from "L3142098";
     to "X3142098B";
     nominal_voltage 7199.558;
     phases BS;
}

object transformer {
     configuration "3838C";
     name "T2224230754C";
     from "L3645812";
     to "X3645812C";
     nominal_voltage 7199.558;
     phases CS;
}

object transformer {
     configuration "2525A";
     name "T5138563A";
     from "L2916627";
     to "X2916627A";
     nominal_voltage 7199.558;
     phases AS;
}

object transformer {
     configuration "2525C";
     name "T5338936C";
     from "L3066815";
     to "X3066815C";
     nominal_voltage 7199.558;
     phases CS;
}

object transformer {
     configuration "1515B";
     name "T5247185B";
     from "L3179678";
     to "X3179678B";
     nominal_voltage 7199.558;
     phases BS;
}

object transformer {
     configuration "2525A";
     name "T21482181A";
     from "L3254237";
     to "X3254237A";
     nominal_voltage 7199.558;
     phases AS;
}

object transformer {
     configuration "2525B";
     name "T5323280B";
     from "L2710512";
     to "X2710512B";
     nominal_voltage 7199.558;
     phases BS;
}

object transformer {
     configuration "2525B";
     name "T5138264B";
     from "L3104125";
     to "X3104125B";
     nominal_voltage 7199.558;
     phases BS;
}

object transformer {
     configuration "1515A";
     name "T5337679A";
     from "L3010559";
     to "X3010559A";
     nominal_voltage 7199.558;
     phases AS;
}

object transformer {
     configuration "2525C";
     name "T21357984C";
     from "L2897790";
     to "X2897790C";
     nominal_voltage 7199.558;
     phases CS;
}

object transformer {
     configuration "1515C";
     name "T5260553C";
     from "L2711225";
     to "X2711225C";
     nominal_voltage 7199.558;
     phases CS;
}

object transformer {
     configuration "2525A";
     name "T5293523A";
     from "L2766729";
     to "X2766729A";
     nominal_voltage 7199.558;
     phases AS;
}

object transformer {
     configuration "2525B";
     name "T5302507B";
     from "L3235275";
     to "X3235275B";
     nominal_voltage 7199.558;
     phases BS;
}

object transformer {
     configuration "2525A";
     name "T2224387019A";
     from "L3728038";
     to "X3728038A";
     nominal_voltage 7199.558;
     phases AS;
}

object transformer {
     configuration "3838C";
     name "T5355431C";
     from "L3048222";
     to "X3048222C";
     nominal_voltage 7199.558;
     phases CS;
}

object transformer {
     configuration "2525C";
     name "T5138404C";
     from "L2841630";
     to "X2841630C";
     nominal_voltage 7199.558;
     phases CS;
}

object transformer {
     configuration "2525A";
     name "T5138574A";
     from "L2991907";
     to "X2991907A";
     nominal_voltage 7199.558;
     phases AS;
}

object transformer {
     configuration "2525C";
     name "T5138466C";
     from "L2973144";
     to "X2973144C";
     nominal_voltage 7199.558;
     phases CS;
}

object transformer {
     configuration "1515A";
     name "T21397721A";
     from "L3178976";
     to "X3178976A";
     nominal_voltage 7199.558;
     phases AS;
}

object transformer {
     configuration "2525A";
     name "T5337684A";
     from "L3159448";
     to "X3159448A";
     nominal_voltage 7199.558;
     phases AS;
}

object transformer {
     configuration "2525C";
     name "T5339051C";
     from "L3231255";
     to "X3231255C";
     nominal_voltage 7199.558;
     phases CS;
}

object transformer {
     configuration "1515C";
     name "T5337623C";
     from "L3197626";
     to "X3197626C";
     nominal_voltage 7199.558;
     phases CS;
}

object transformer {
     configuration "7575B";
     name "T226308725B";
     from "L2802480";
     to "X2802480B";
     nominal_voltage 7199.558;
     phases BS;
}

object transformer {
     configuration "2525A";
     name "T5356804A";
     from "L2823544";
     to "X2823544A";
     nominal_voltage 7199.558;
     phases AS;
}

object transformer {
     configuration "1515B";
     name "T5355604B";
     from "L2841624";
     to "X2841624B";
     nominal_voltage 7199.558;
     phases BS;
}

object transformer {
     configuration "7575C";
     name "T21459660C";
     from "L3101194";
     to "X3101194C";
     nominal_voltage 7199.558;
     phases CS;
}

object transformer {
     configuration "3838C";
     name "T5337636C";
     from "L2841619";
     to "X2841619C";
     nominal_voltage 7199.558;
     phases CS;
}

object transformer {
     configuration "2525C";
     name "T5260505C";
     from "L2861218";
     to "X2861218C";
     nominal_voltage 7199.558;
     phases CS;
}

object transformer {
     configuration "1010B";
     name "T5325245B";
     from "L2710513";
     to "X2710513B";
     nominal_voltage 7199.558;
     phases BS;
}

object transformer {
     configuration "1515C";
     name "T21385192C";
     from "L2879062";
     to "X2879062C";
     nominal_voltage 7199.558;
     phases CS;
}

object transformer {
     configuration "1010B";
     name "T5260496B";
     from "L2879767";
     to "X2879767B";
     nominal_voltage 7199.558;
     phases BS;
}

object transformer {
     configuration "1515C";
     name "T21399220C";
     from "L2766725";
     to "X2766725C";
     nominal_voltage 7199.558;
     phases CS;
}

object transformer {
     configuration "1515C";
     name "T5337655C";
     from "L3141396";
     to "X3141396C";
     nominal_voltage 7199.558;
     phases CS;
}

object transformer {
     configuration "1515B";
     name "T5330122B";
     from "L2879752";
     to "X2879752B";
     nominal_voltage 7199.558;
     phases BS;
}

object transformer {
     configuration "1515C";
     name "T28148060C";
     from "L2991940";
     to "X2991940C";
     nominal_voltage 7199.558;
     phases CS;
}

object transformer {
     configuration "2525A";
     name "T5302674A";
     from "L2673321";
     to "X2673321A";
     nominal_voltage 7199.558;
     phases AS;
}

object transformer {
     configuration "1515B";
     name "T5355601B";
     from "L2673326";
     to "X2673326B";
     nominal_voltage 7199.558;
     phases BS;
}

object transformer {
     configuration "2525C";
     name "T225533703C";
     from "L2925506";
     to "X2925506C";
     nominal_voltage 7199.558;
     phases CS;
}

object transformer {
     configuration "2525C";
     name "T5356814C";
     from "L2730106";
     to "X2730106C";
     nominal_voltage 7199.558;
     phases CS;
}

object transformer {
     configuration "2525A";
     name "T226196648A";
     from "L2820556";
     to "X2820556A";
     nominal_voltage 7199.558;
     phases AS;
}

object transformer {
     configuration "1515C";
     name "T5321861C";
     from "L3235248";
     to "X3235248C";
     nominal_voltage 7199.558;
     phases CS;
}

object transformer {
     configuration "2525B";
     name "T5355840B";
     from "L2822871";
     to "X2822871B";
     nominal_voltage 7199.558;
     phases BS;
}

object transformer {
     configuration "1515A";
     name "T21243817A";
     from "L2955076";
     to "X2955076A";
     nominal_voltage 7199.558;
     phases AS;
}

object transformer {
     configuration "1515B";
     name "T5260589B";
     from "L2955005";
     to "X2955005B";
     nominal_voltage 7199.558;
     phases BS;
}

object transformer {
     configuration "2525C";
     name "T5338961C";
     from "L3254208";
     to "X3254208C";
     nominal_voltage 7199.558;
     phases CS;
}

object transformer {
     configuration "1515A";
     name "T5337723A";
     from "L3178978";
     to "X3178978A";
     nominal_voltage 7199.558;
     phases AS;
}

object transformer {
     configuration "2525A";
     name "T5138573A";
     from "L3235253";
     to "X3235253A";
     nominal_voltage 7199.558;
     phases AS;
}

object transformer {
     configuration "2525C";
     name "T5321888C";
     from "L3235241";
     to "X3235241C";
     nominal_voltage 7199.558;
     phases CS;
}

object transformer {
     configuration "2525B";
     name "T28148580B";
     from "L3197636";
     to "X3197636B";
     nominal_voltage 7199.558;
     phases BS;
}

object transformer {
     configuration "2525B";
     name "T28126875B";
     from "L3066811";
     to "X3066811B";
     nominal_voltage 7199.558;
     phases BS;
}

object transformer {
     configuration "1515A";
     name "T2224192013A";
     from "L3632979";
     to "X3632979A";
     nominal_voltage 7199.558;
     phases AS;
}

object transformer {
     configuration "1515C";
...